/*--------------------------------*- C++ -*----------------------------------*\
  =========                 |
  \\      /  F ield         | OpenFOAM: The Open Source CFD Toolbox
   \\    /   O peration     | Website:  https://openfoam.org
    \\  /    A nd           | Version:  7
     \\/     M anipulation  |
\*---------------------------------------------------------------------------*/
FoamFile
{
    version     2.0;
    format      ascii;
    class       polyBoundaryMesh;
    location    "constant/polyMesh";
    object      boundary;
}
// * * * * * * * * * * * * * * * * * * * * * * * * * * * * * * * * * * * * * //

10
(
    inlet
    {
        type            patch;
        nFaces          0;
        startFace       3883;
    }
    outlet
    {
        type            patch;
        nFaces          0;
        startFace       3883;
    }
    cylinder
    {
        type            wall;
        inGroups        List<word> 1(wall);
        nFaces          0;
        startFace       3883;
    }
    top
    {
        type            symmetryPlane;
        inGroups        List<word> 1(symmetryPlane);
        nFaces          49;
        startFace       3883;
    }
    bottom
    {
        type            symmetryPlane;
        inGroups        List<word> 1(symmetryPlane);
        nFaces          0;
        startFace       3932;
    }
    defaultFaces
    {
        type            empty;
        inGroups        List<word> 1(empty);
        nFaces          3978;
        startFace       3932;
    }
    procBoundary13to9
    {
        type            processor;
        inGroups        List<word> 1(processor);
        nFaces          58;
        startFace       7910;
        matchTolerance  0.0001;
        transform       unknown;
        myProcNo        13;
        neighbProcNo    9;
    }
    procBoundary13to10
    {
        type            processor;
        inGroups        List<word> 1(processor);
        nFaces          2;
        startFace       7968;
        matchTolerance  0.0001;
        transform       unknown;
        myProcNo        13;
        neighbProcNo    10;
    }
    procBoundary13to12
    {
        type            processor;
        inGroups        List<word> 1(processor);
        nFaces          46;
        startFace       7970;
        matchTolerance  0.0001;
        transform       unknown;
        myProcNo        13;
        neighbProcNo    12;
    }
    procBoundary13to14
    {
        type            processor;
        inGroups        List<word> 1(processor);
        nFaces          35;
        startFace       8016;
        matchTolerance  0.0001;
        transform       unknown;
        myProcNo        13;
        neighbProcNo    14;
    }
)

// ************************************************************************* //
