/*--------------------------------*- C++ -*----------------------------------*\
  =========                 |
  \\      /  F ield         | OpenFOAM: The Open Source CFD Toolbox
   \\    /   O peration     | Website:  https://openfoam.org
    \\  /    A nd           | Version:  7
     \\/     M anipulation  |
\*---------------------------------------------------------------------------*/
FoamFile
{
    version     2.0;
    format      ascii;
    class       polyBoundaryMesh;
    location    "constant/polyMesh";
    object      boundary;
}
// * * * * * * * * * * * * * * * * * * * * * * * * * * * * * * * * * * * * * //

10
(
    inlet
    {
        type            patch;
        nFaces          0;
        startFace       3880;
    }
    outlet
    {
        type            patch;
        nFaces          35;
        startFace       3880;
    }
    cylinder
    {
        type            wall;
        inGroups        List<word> 1(wall);
        nFaces          0;
        startFace       3915;
    }
    top
    {
        type            symmetryPlane;
        inGroups        List<word> 1(symmetryPlane);
        nFaces          0;
        startFace       3915;
    }
    bottom
    {
        type            symmetryPlane;
        inGroups        List<word> 1(symmetryPlane);
        nFaces          0;
        startFace       3915;
    }
    defaultFaces
    {
        type            empty;
        inGroups        List<word> 1(empty);
        nFaces          3974;
        startFace       3915;
    }
    procBoundary11to7
    {
        type            processor;
        inGroups        List<word> 1(processor);
        nFaces          59;
        startFace       7889;
        matchTolerance  0.0001;
        transform       unknown;
        myProcNo        11;
        neighbProcNo    7;
    }
    procBoundary11to10
    {
        type            processor;
        inGroups        List<word> 1(processor);
        nFaces          36;
        startFace       7948;
        matchTolerance  0.0001;
        transform       unknown;
        myProcNo        11;
        neighbProcNo    10;
    }
    procBoundary11to14
    {
        type            processor;
        inGroups        List<word> 1(processor);
        nFaces          1;
        startFace       7984;
        matchTolerance  0.0001;
        transform       unknown;
        myProcNo        11;
        neighbProcNo    14;
    }
    procBoundary11to15
    {
        type            processor;
        inGroups        List<word> 1(processor);
        nFaces          57;
        startFace       7985;
        matchTolerance  0.0001;
        transform       unknown;
        myProcNo        11;
        neighbProcNo    15;
    }
)

// ************************************************************************* //
