/*--------------------------------*- C++ -*----------------------------------*\
  =========                 |
  \\      /  F ield         | OpenFOAM: The Open Source CFD Toolbox
   \\    /   O peration     | Website:  https://openfoam.org
    \\  /    A nd           | Version:  7
     \\/     M anipulation  |
\*---------------------------------------------------------------------------*/
FoamFile
{
    version     2.0;
    format      ascii;
    class       polyBoundaryMesh;
    location    "constant/polyMesh";
    object      boundary;
}
// * * * * * * * * * * * * * * * * * * * * * * * * * * * * * * * * * * * * * //

10
(
    inlet
    {
        type            patch;
        nFaces          0;
        startFace       3886;
    }
    outlet
    {
        type            patch;
        nFaces          0;
        startFace       3886;
    }
    cylinder
    {
        type            wall;
        inGroups        List<word> 1(wall);
        nFaces          0;
        startFace       3886;
    }
    top
    {
        type            symmetryPlane;
        inGroups        List<word> 1(symmetryPlane);
        nFaces          56;
        startFace       3886;
    }
    bottom
    {
        type            symmetryPlane;
        inGroups        List<word> 1(symmetryPlane);
        nFaces          0;
        startFace       3942;
    }
    defaultFaces
    {
        type            empty;
        inGroups        List<word> 1(empty);
        nFaces          3978;
        startFace       3942;
    }
    procBoundary14to10
    {
        type            processor;
        inGroups        List<word> 1(processor);
        nFaces          57;
        startFace       7920;
        matchTolerance  0.0001;
        transform       unknown;
        myProcNo        14;
        neighbProcNo    10;
    }
    procBoundary14to11
    {
        type            processor;
        inGroups        List<word> 1(processor);
        nFaces          1;
        startFace       7977;
        matchTolerance  0.0001;
        transform       unknown;
        myProcNo        14;
        neighbProcNo    11;
    }
    procBoundary14to13
    {
        type            processor;
        inGroups        List<word> 1(processor);
        nFaces          35;
        startFace       7978;
        matchTolerance  0.0001;
        transform       unknown;
        myProcNo        14;
        neighbProcNo    13;
    }
    procBoundary14to15
    {
        type            processor;
        inGroups        List<word> 1(processor);
        nFaces          35;
        startFace       8013;
        matchTolerance  0.0001;
        transform       unknown;
        myProcNo        14;
        neighbProcNo    15;
    }
)

// ************************************************************************* //
